*Heading
** Job name: Job-2 Model name: Model-1
** Generated by: Abaqus/CAE 2023
*Preprint, echo=NO, model=NO, history=NO, contact=NO
**
** PARTS
**
*Part, name=Part-1
*Node
      1,   16.9424992,   -2.9124999
      2,       1.0575,  -5.55999994
      3,   23.1200008,   12.0900002
      4,    4.5875001,   20.0324993
      5,          34.,         26.5
      6,         -16.,         26.5
      7,         -16.,        -23.5
      8,          34.,        -23.5
      9,   3.70499992,   2.38249993
     10,   16.3041763,  -3.69534302
     11,    15.836503,  -4.59065533
     12,   15.5586281,  -5.56178188
     13,   15.4819279,  -6.56896544
     14,   15.6095428,  -7.57097149
     15,   15.9362478,  -8.52677727
     16,   16.4486675,  -9.39725304
     17,   17.1258221,  -10.1467609
     18,    17.939991,  -10.7446156
     19,   18.8578415,  -11.1663418
     20,    19.841795,  -11.3946724
** ... 1891 like lines cut
*Element, type=CPS3
1, 286, 292, 302
2, 288, 301, 273
3, 264, 280, 253
4, 277, 294, 314
5, 290, 285, 300
117, 400, 399, 356
118, 403, 385, 375
119, 376, 374, 370
120, 366, 373, 398
209, 412, 407, 406
210, 410, 406, 409
211, 411,  70,  71
226, 529, 430, 416
227, 503, 510, 538
373,  791,  583,  774
374,  910,  729,  828
375,  686,  819,  698
376,  867,  983,  750
377, 1427, 1788,  853
378,  990, 1399,  873
** ... 56 like lines cut
*Element, type=CPS4R
  6, 240, 281, 261, 234
  7,  22,  23, 229, 242
  8, 245, 244,  26,  27
  9, 320, 254, 271, 295
 10, 307, 287, 248, 303
 11, 303, 231, 257, 307
 12, 251, 250,  37,  38
 13,  10,  11, 236, 235
 14, 249, 250, 293, 256
 15, 235, 309, 264, 252
 16, 240, 234, 305, 304
 17, 310, 272, 236, 267
 18, 233, 237,  13,  14
 19, 306, 239,  16,  17
 20, 306, 305, 234, 239
 21, 242, 241,  21,  22
 22,  23,  24, 243, 229
 23, 230, 245,  27,  28
 24,  30,  31, 247, 266
 25, 303, 248,  33,  34
** ... 1802 like lines cut
*Nset, nset=Set-1
    1,    2,    3,    4,    9,   10,   11,   12,   13,   14,   15,   16,   17,   18,   19,   20
   21,   22,   23,   24,   25,   26,   27,   28,   29,   30,   31,   32,   33,   34,   35,   36
   37,   38,   39,   40,   41,   42,   43,   44,   45,   46,   47,   48,   49,   50,   51,   52
   53,   54,   55,   56,   57,   58,   59,   60,   61,   62,   63,   64,   65,   66,   67,   68
   69,   70,   71,   72,   73,   74,   75,   76,   77,   78,   79,   80,   81,   82,   83,   84
   85,   86,   87,   88,   89,   90,   91,   92,   93,   94,   95,   96,   97,   98,   99,  100
  101,  102,  103,  104,  105,  106,  107,  108,  109,  110,  111,  208,  209,  210,  211,  212
  213,  214,  215,  216,  217,  218,  219,  220,  221,  222,  223,  224,  225,  226,  227,  228
  229,  230,  231,  232,  233,  234,  235,  236,  237,  238,  239,  240,  241,  242,  243,  244
  245,  246,  247,  248,  249,  250,  251,  252,  253,  254,  255,  256,  257,  258,  259,  260
  261,  262,  263,  264,  265,  266,  267,  268,  269,  270,  271,  272,  273,  274,  275,  276
  277,  278,  279,  280,  281,  282,  283,  284,  285,  286,  287,  288,  289,  290,  291,  292
  293,  294,  295,  296,  297,  298,  299,  300,  301,  302,  303,  304,  305,  306,  307,  308
  309,  310,  311,  312,  313,  314,  315,  316,  317,  318,  319,  320,  321,  322,  323,  324
  325,  326,  327,  328,  329,  330,  331,  332,  333,  334,  335,  336,  337,  338,  339,  340
  341,  342,  343,  344,  345,  346,  347,  348,  349,  350,  351,  352,  353,  354,  355,  356
  357,  358,  359,  360,  361,  362,  363,  364,  365,  366,  367,  368,  369,  370,  371,  372
  373,  374,  375,  376,  377,  378,  379,  380,  381,  382,  383,  384,  385,  386,  387,  388
  389,  390,  391,  392,  393,  394,  395,  396,  397,  398,  399,  400,  401,  402,  403,  404
  405,  406,  407,  408,  409,  410,  411,  412,  413,  414,  415,  416,  417,  418,  419,  420
** ... 11 like lines cut
*Elset, elset=Set-1
    1,    2,    3,    4,    5,    6,    7,    8,    9,   10,   11,   12,   13,   14,   15,   16
   17,   18,   19,   20,   21,   22,   23,   24,   25,   26,   27,   28,   29,   30,   31,   32
   33,   34,   35,   36,   37,   38,   39,   40,   41,   42,   43,   44,   45,   46,   47,   48
   49,   50,   51,   52,   53,   54,   55,   56,   57,   58,   59,   60,   61,   62,   63,   64
   65,   66,   67,   68,   69,   70,   71,   72,   73,   74,   75,   76,   77,   78,   79,   80
   81,   82,   83,   84,   85,   86,   87,   88,   89,   90,   91,   92,   93,   94,   95,   96
   97,   98,   99,  100,  101,  102,  103,  104,  105,  106,  107,  108,  109,  110,  111,  112
  113,  114,  115,  116,  117,  118,  119,  120,  121,  122,  123,  124,  125,  126,  127,  128
  129,  130,  131,  132,  133,  134,  135,  136,  137,  138,  139,  140,  141,  142,  143,  144
  145,  146,  147,  148,  149,  150,  151,  152,  153,  154,  155,  156,  157,  158,  159,  160
  161,  162,  163,  164,  165,  166,  167,  168,  169,  170,  171,  172,  173,  174,  175,  176
  177,  178,  179,  180,  181,  182,  183,  184,  185,  186,  187,  188,  189,  190,  191,  192
  193,  194,  195,  196,  197,  198,  199,  200,  201,  202,  203,  204,  205,  206,  207,  208
  209,  210,  211,  212,  213,  214,  215,  216,  217,  218,  219,  220,  221,  222,  223,  224
  225,  226,  227,  228,  229,  230,  231,  232,  233,  234,  235,  236,  237,  238,  239,  240
  241,  242,  243,  244,  245,  246,  247,  248,  249,  250,  251,  252,  253,  254,  255,  256
  257,  258,  259,  260,  261,  262,  263,  264,  265,  266,  267,  268,  269,  270,  271,  272
  273,  274,  275,  276,  277,  278,  279,  280,  281,  282,  283,  284,  285,  286,  287,  288
  289,  290,  291,  292,  293,  294,  295,  296,  297,  298,  299,  300,  301,  302,  303,  304
  305,  306,  307,  308,  309,  310,  311,  312,  313,  314,  315,  316,  317,  318,  319,  320
** ... 7 like lines cut
*Nset, nset=Set-2
    1,    2,    3,    4,    5,    6,    7,    8,    9,   10,   11,   12,   13,   14,   15,   16
   17,   18,   19,   20,   21,   22,   23,   24,   25,   26,   27,   28,   29,   30,   31,   32
   33,   34,   35,   36,   37,   38,   39,   40,   41,   42,   43,   44,   45,   46,   47,   48
   49,   50,   51,   52,   53,   54,   55,   56,   57,   58,   59,   60,   61,   62,   63,   64
   65,   66,   67,   68,   69,   70,   71,   72,   73,   74,   75,   76,   77,   78,   79,   80
   81,   82,   83,   84,   85,   86,   87,   88,   89,   90,   91,   92,   93,   94,   95,   96
   97,   98,   99,  100,  101,  102,  103,  104,  105,  106,  107,  108,  109,  110,  111,  112
  113,  114,  115,  116,  117,  118,  119,  120,  121,  122,  123,  124,  125,  126,  127,  128
  129,  130,  131,  132,  133,  134,  135,  136,  137,  138,  139,  140,  141,  142,  143,  144
  145,  146,  147,  148,  149,  150,  151,  152,  153,  154,  155,  156,  157,  158,  159,  160
  161,  162,  163,  164,  165,  166,  167,  168,  169,  170,  171,  172,  173,  174,  175,  176
  177,  178,  179,  180,  181,  182,  183,  184,  185,  186,  187,  188,  189,  190,  191,  192
  193,  194,  195,  196,  197,  198,  199,  200,  201,  202,  203,  204,  205,  206,  207,  208
  209,  210,  211,  212,  213,  214,  215,  216,  217,  218,  219,  220,  221,  222,  223,  224
  225,  226,  227,  228,  545,  546,  547,  548,  549,  550,  551,  552,  553,  554,  555,  556
  557,  558,  559,  560,  561,  562,  563,  564,  565,  566,  567,  568,  569,  570,  571,  572
  573,  574,  575,  576,  577,  578,  579,  580,  581,  582,  583,  584,  585,  586,  587,  588
  589,  590,  591,  592,  593,  594,  595,  596,  597,  598,  599,  600,  601,  602,  603,  604
  605,  606,  607,  608,  609,  610,  611,  612,  613,  614,  615,  616,  617,  618,  619,  620
  621,  622,  623,  624,  625,  626,  627,  628,  629,  630,  631,  632,  633,  634,  635,  636
** ... 78 like lines cut
*Elset, elset=Set-2, generate
  373,  1845,     1
** Section: Section-1
*Solid Section, elset=Set-1, material=Fibre
,
** Section: Section-2
*Solid Section, elset=Set-2, material=Matrice
,
*End Part
**  
**
** ASSEMBLY
**
*Assembly, name=Assembly
**  
*Instance, name=Part-1-1, part=Part-1
*End Instance
**  
*Nset, nset=Set-1, instance=Part-1-1
   5,   8, 184, 185, 186, 187, 188, 189, 190, 191, 192, 193, 194, 195, 196, 197
 198, 199, 200, 201, 202, 203, 204, 205, 206, 207
*Elset, elset=Set-1, instance=Part-1-1
  467,  566,  568,  585,  587, 1032, 1114, 1118, 1122, 1378, 1417, 1428, 1503, 1510, 1546, 1567
 1591, 1616, 1617, 1618, 1622, 1640, 1724, 1750, 1755
*Nset, nset=Set-2, instance=Part-1-1
   6,   7, 136, 137, 138, 139, 140, 141, 142, 143, 144, 145, 146, 147, 148, 149
 150, 151, 152, 153, 154, 155, 156, 157, 158, 159
*Elset, elset=Set-2, instance=Part-1-1
  452,  525,  546, 1137, 1628, 1658, 1670, 1681, 1694, 1706, 1707, 1711, 1715, 1719, 1720, 1722
 1725, 1727, 1731, 1739, 1740, 1766, 1769, 1771, 1797
*End Assembly
** 
** MATERIALS
** 
*Material, name=Fibre
*Density
1750.,
*Elastic
230000., 0.3
*Material, name=Matrice
*Density
1200.,
*Elastic
4500., 0.4
** ----------------------------------------------------------------
** 
** STEP: Step-1
** 
*Step, name=Step-1, nlgeom=NO
*Static
1., 1., 1e-05, 1.
** 
** BOUNDARY CONDITIONS
** 
** Name: BC-1 Type: Displacement/Rotation
*Boundary
Set-1, 1, 1, 10.
** Name: BC-2 Type: Displacement/Rotation
*Boundary
Set-2, 1, 1, -10.
** 
** OUTPUT REQUESTS
** 
*Restart, write, frequency=0
** 
** FIELD OUTPUT: F-Output-1
** 
*Output, field, variable=PRESELECT
** 
** HISTORY OUTPUT: H-Output-1
** 
*Output, history, variable=PRESELECT
*End Step
